<?xml version="1.0" encoding="UTF-8"?>

<!-- generated on 2025-04-06 14:58:53.739935 by osmWebWizard.py v1_22_0+0002-63e50f52594
<configuration>
    <net-file value="C:\Users\Mate\Sumo\2025-04-06-14-57-38\osm.net.xml.gz"/>
    <output-trip-file value="C:\Users\Mate\Sumo\2025-04-06-14-57-38\osm.passenger.trips.xml"/>
    <route-file value="C:\Users\Mate\Sumo\2025-04-06-14-57-38\osm.passenger.rou.xml"/>
    <prefix value="veh"/>
    <trip-attributes value="departLane=&quot;best&quot;"/>
    <fringe-start-attributes value="departSpeed=&quot;max&quot;"/>
    <vehicle-class value="passenger"/>
    <lanes value="True"/>
    <fringe-factor value="5"/>
    <allow-fringe.min-length value="1000.0"/>
    <via-edge-types value="highway.motorway,highway.motorway_link,highway.trunk_link,highway.primary_link,highway.secondary_link,highway.tertiary_link"/>
    <min-distance value="300.0"/>
    <min-distance.fringe value="10.0"/>
    <remove-loops value="True"/>
    <validate value="True"/>
    <insertion-density value="12.0"/>
</configuration>
-->

<!-- generated on 2025-04-06 14:58:45 by Eclipse SUMO duarouter Version 1.22.0
<duarouterConfiguration xmlns:xsi="http://www.w3.org/2001/XMLSchema-instance" xsi:noNamespaceSchemaLocation="http://sumo.dlr.de/xsd/duarouterConfiguration.xsd">

    <input>
        <net-file value="C:\Users\Mate\Sumo\2025-04-06-14-57-38\osm.net.xml.gz"/>
        <route-files value="C:\Users\Mate\Sumo\2025-04-06-14-57-38\osm.passenger.trips.xml"/>
    </input>

    <output>
        <output-file value="C:\Users\Mate\Sumo\2025-04-06-14-57-38\osm.passenger.trips.xml.tmp"/>
        <alternatives-output value="NUL"/>
        <write-trips value="true"/>
    </output>

    <processing>
        <remove-loops value="true"/>
    </processing>

    <time>
        <begin value="0.0"/>
        <end value="3600.0"/>
    </time>

    <report>
        <no-warnings value="true"/>
        <ignore-errors value="true"/>
        <no-step-log value="true"/>
    </report>

</duarouterConfiguration>
-->

<routes xmlns:xsi="http://www.w3.org/2001/XMLSchema-instance" xsi:noNamespaceSchemaLocation="http://sumo.dlr.de/xsd/routes_file.xsd">
    <vType id="veh_passenger" vClass="passenger"/>
    <trip id="veh0" type="veh_passenger" depart="0.00" departLane="best" from="143382008#4" to="-1079531341#0"/>
    <trip id="veh1" type="veh_passenger" depart="0.76" departLane="best" departSpeed="max" from="-59264886#1" to="1186828905"/>
    <trip id="veh2" type="veh_passenger" depart="1.53" departLane="best" from="200893685#0" to="151656828#7"/>
    <trip id="veh3" type="veh_passenger" depart="2.29" departLane="best" departSpeed="max" from="76174180" to="-134558709"/>
    <trip id="veh4" type="veh_passenger" depart="3.05" departLane="best" from="-986654984" to="113785200#23"/>
    <trip id="veh7" type="veh_passenger" depart="5.34" departLane="best" from="-143731224#3" to="-141536010#3"/>
    <trip id="veh8" type="veh_passenger" depart="6.10" departLane="best" from="-203886859" to="142955120#2"/>
    <trip id="veh9" type="veh_passenger" depart="6.86" departLane="best" from="44649998-AddedOffRampEdge" to="-102020840#9"/>
    <trip id="veh10" type="veh_passenger" depart="7.63" departLane="best" departSpeed="max" from="44649984#0" to="-167080946#5"/>
    <trip id="veh11" type="veh_passenger" depart="8.39" departLane="best" departSpeed="max" from="-76180043" to="143822164#5"/>
    <trip id="veh12" type="veh_passenger" depart="9.15" departLane="best" from="1273095598#0" to="-78395105#0"/>
    <trip id="veh13" type="veh_passenger" depart="9.91" departLane="best" departSpeed="max" from="-1303887452#1" to="-141531178#0"/>
    <trip id="veh14" type="veh_passenger" depart="10.68" departLane="best" from="687285412#1" to="143078530#2"/>
    <trip id="veh15" type="veh_passenger" depart="11.44" departLane="best" from="44649988" to="25567016#1"/>
    <trip id="veh16" type="veh_passenger" depart="12.20" departLane="best" departSpeed="max" from="1308256222" to="-915575377#1"/>
    <trip id="veh17" type="veh_passenger" depart="12.96" departLane="best" departSpeed="max" from="-78622388" to="141682716#0"/>
    <trip id="veh18" type="veh_passenger" depart="13.73" departLane="best" from="526771796#0" to="143728825#9"/>
    <trip id="veh19" type="veh_passenger" depart="14.49" departLane="best" from="74295633#1" to="142932108#2"/>
    <trip id="veh20" type="veh_passenger" depart="15.25" departLane="best" from="-151821356#1" to="-119808387#1"/>
    <trip id="veh21" type="veh_passenger" depart="16.01" departLane="best" from="-25567016#1" to="75730383#0"/>
    <trip id="veh22" type="veh_passenger" depart="16.78" departLane="best" from="1237734016#3" to="-42710985#3"/>
    <trip id="veh23" type="veh_passenger" depart="17.54" departLane="best" from="133535429#5" to="-75717487#2"/>
    <trip id="veh24" type="veh_passenger" depart="18.30" departLane="best" from="143380644#2" to="-915562955#0"/>
    <trip id="veh25" type="veh_passenger" depart="19.06" departLane="best" from="-78242232#1" to="246357933#3"/>
    <trip id="veh26" type="veh_passenger" depart="19.83" departLane="best" from="-45421221#11" to="79396364"/>
    <trip id="veh27" type="veh_passenger" depart="20.59" departLane="best" departSpeed="max" from="143731214#0" to="143380647#3"/>
    <trip id="veh28" type="veh_passenger" depart="21.35" departLane="best" from="-143822163#6" to="248251207#2"/>
    <trip id="veh29" type="veh_passenger" depart="22.12" departLane="best" from="143728818#1" to="-936461013#0"/>
    <trip id="veh30" type="veh_passenger" depart="22.88" departLane="best" from="921879093#0" to="151297654#1"/>
    <trip id="veh31" type="veh_passenger" depart="23.64" departLane="best" from="140524377#2" to="156013821#2"/>
    <trip id="veh32" type="veh_passenger" depart="24.40" departLane="best" from="68722279#2" to="38762797#1"/>
    <trip id="veh33" type="veh_passenger" depart="25.17" departLane="best" from="261095850#2" to="114097530#2"/>
    <trip id="veh34" type="veh_passenger" depart="25.93" departLane="best" departSpeed="max" from="-75727910#1" to="-74116831#2"/>
    <trip id="veh35" type="veh_passenger" depart="26.69" departLane="best" departSpeed="max" from="-185310422" to="-830299157#16"/>
    <trip id="veh36" type="veh_passenger" depart="27.45" departLane="best" from="75724197#1" to="-76185343#0"/>
    <trip id="veh37" type="veh_passenger" depart="28.22" departLane="best" from="-143822159#12" to="102540840#7"/>
    <trip id="veh38" type="veh_passenger" depart="28.98" departLane="best" from="76349819#1" to="121260889#2"/>
    <trip id="veh39" type="veh_passenger" depart="29.74" departLane="best" from="-45421209#1" to="-45421221#1"/>
    <trip id="veh40" type="veh_passenger" depart="30.50" departLane="best" from="141530095#5" to="-68729408#3"/>
    <trip id="veh41" type="veh_passenger" depart="31.27" departLane="best" from="-141799950#0" to="-76183329#2"/>
    <trip id="veh42" type="veh_passenger" depart="32.03" departLane="best" from="-914452989#0" to="-302250537#2"/>
    <trip id="veh43" type="veh_passenger" depart="32.79" departLane="best" from="986654985#0" to="131324560"/>
    <trip id="veh45" type="veh_passenger" depart="34.32" departLane="best" from="-137427198#1" to="143822159#12"/>
    <trip id="veh46" type="veh_passenger" depart="35.08" departLane="best" from="336737758#7" to="1105811212"/>
    <trip id="veh47" type="veh_passenger" depart="35.84" departLane="best" from="-121260889#0" to="-986025969#2"/>
    <trip id="veh48" type="veh_passenger" depart="36.60" departLane="best" from="941606532#0" to="137427194"/>
    <trip id="veh49" type="veh_passenger" depart="37.37" departLane="best" from="915571151#0" to="75723548"/>
    <trip id="veh50" type="veh_passenger" depart="38.13" departLane="best" from="-102540843#1" to="205970043#1"/>
    <trip id="veh51" type="veh_passenger" depart="38.89" departLane="best" from="151493965#1" to="141531190#1"/>
    <trip id="veh52" type="veh_passenger" depart="39.65" departLane="best" from="-45421221#10" to="151297654#3"/>
    <trip id="veh53" type="veh_passenger" depart="40.42" departLane="best" from="-140643930#5" to="1178189488"/>
    <trip id="veh54" type="veh_passenger" depart="41.18" departLane="best" from="1087362250" to="-904457214#0"/>
    <trip id="veh55" type="veh_passenger" depart="41.94" departLane="best" from="75723875#0" to="-68729411#2"/>
    <trip id="veh56" type="veh_passenger" depart="42.71" departLane="best" from="-268783501#0" to="-155845862#1"/>
    <trip id="veh57" type="veh_passenger" depart="43.47" departLane="best" from="76346358#3" to="75730383#3"/>
    <trip id="veh58" type="veh_passenger" depart="44.23" departLane="best" departSpeed="max" from="-74333937#9" to="151297648#1"/>
    <trip id="veh59" type="veh_passenger" depart="44.99" departLane="best" from="-142955079#1" to="-143822152#8"/>
    <trip id="veh60" type="veh_passenger" depart="45.76" departLane="best" departSpeed="max" from="296209085" to="141536004#1"/>
    <trip id="veh61" type="veh_passenger" depart="46.52" departLane="best" departSpeed="max" from="336543493#0" to="137427199#2"/>
    <trip id="veh62" type="veh_passenger" depart="47.28" departLane="best" from="-1006714089" to="-77730127"/>
    <trip id="veh63" type="veh_passenger" depart="48.04" departLane="best" from="103401530" to="78314915#1"/>
    <trip id="veh64" type="veh_passenger" depart="48.81" departLane="best" from="75727818#6" to="-68729406#0"/>
    <trip id="veh65" type="veh_passenger" depart="49.57" departLane="best" departSpeed="max" from="-75722623#4" to="-121923558#3"/>
    <trip id="veh66" type="veh_passenger" depart="50.33" departLane="best" from="75727700" to="83903076#5"/>
    <trip id="veh67" type="veh_passenger" depart="51.09" departLane="best" departSpeed="max" from="-126607363#1" to="125506926#5"/>
    <trip id="veh69" type="veh_passenger" depart="52.62" departLane="best" from="30065003#7" to="-142932081#0"/>
    <trip id="veh70" type="veh_passenger" depart="53.38" departLane="best" from="119240329#0" to="-141670991#0"/>
    <trip id="veh71" type="veh_passenger" depart="54.14" departLane="best" from="-45421209#2" to="75730467#5"/>
    <trip id="veh72" type="veh_passenger" depart="54.91" departLane="best" from="99746045#1" to="-260747761#8"/>
    <trip id="veh73" type="veh_passenger" depart="55.67" departLane="best" from="131893872#2" to="25567016#3"/>
    <trip id="veh74" type="veh_passenger" depart="56.43" departLane="best" departSpeed="max" from="-163103648" to="76183578#1"/>
    <trip id="veh75" type="veh_passenger" depart="57.19" departLane="best" from="936461022" to="151369768#1"/>
    <trip id="veh76" type="veh_passenger" depart="57.96" departLane="best" from="-102549153#5" to="133756233#2"/>
    <trip id="veh77" type="veh_passenger" depart="58.72" departLane="best" from="-141536005#3" to="-335295366#2"/>
    <trip id="veh78" type="veh_passenger" depart="59.48" departLane="best" from="-76179083#6" to="142955112#8"/>
    <trip id="veh79" type="veh_passenger" depart="60.24" departLane="best" from="-285471960#0" to="-315205916"/>
    <trip id="veh80" type="veh_passenger" depart="61.01" departLane="best" from="-122053487" to="143822164#1"/>
    <trip id="veh81" type="veh_passenger" depart="61.77" departLane="best" from="261095850#0" to="76346235#1"/>
    <trip id="veh82" type="veh_passenger" depart="62.53" departLane="best" departSpeed="max" from="-308871550" to="151608607#1"/>
    <trip id="veh83" type="veh_passenger" depart="63.29" departLane="best" from="194105979#0" to="142955079#1"/>
    <trip id="veh84" type="veh_passenger" depart="64.06" departLane="best" from="-79091897#2" to="-142845027#3"/>
    <trip id="veh85" type="veh_passenger" depart="64.82" departLane="best" from="119066064#3" to="-44649981#1"/>
    <trip id="veh86" type="veh_passenger" depart="65.58" departLane="best" from="44649991" to="-167080946#3"/>
    <trip id="veh87" type="veh_passenger" depart="66.35" departLane="best" from="-1318998648#2" to="115714470#3"/>
    <trip id="veh88" type="veh_passenger" depart="67.11" departLane="best" from="-1006714089" to="122053492#2"/>
    <trip id="veh89" type="veh_passenger" depart="67.87" departLane="best" from="192901724" to="151654915#9"/>
    <trip id="veh90" type="veh_passenger" depart="68.63" departLane="best" from="921879082#0" to="141531190#4"/>
    <trip id="veh91" type="veh_passenger" depart="69.40" departLane="best" from="915562952#1" to="79091897#0"/>
    <trip id="veh92" type="veh_passenger" depart="70.16" departLane="best" from="74295633#1" to="-45421237#0"/>
    <trip id="veh93" type="veh_passenger" depart="70.92" departLane="best" from="151656834#1" to="119935803#1"/>
    <trip id="veh94" type="veh_passenger" depart="71.68" departLane="best" from="-371721870#6" to="78043485#2"/>
    <trip id="veh95" type="veh_passenger" depart="72.45" departLane="best" from="103643774#3" to="75723644#2"/>
    <trip id="veh96" type="veh_passenger" depart="73.21" departLane="best" from="1360556356#1" to="120920081#0"/>
    <trip id="veh97" type="veh_passenger" depart="73.97" departLane="best" from="-99414126#3" to="700729021#0"/>
    <trip id="veh98" type="veh_passenger" depart="74.73" departLane="best" from="915562957#6" to="78242237#2"/>
    <trip id="veh99" type="veh_passenger" depart="75.50" departLane="best" from="68729406#0" to="-151501132#1"/>
    <trip id="veh100" type="veh_passenger" depart="76.26" departLane="best" from="-120724323#0" to="-287958760#1"/>
    <trip id="veh101" type="veh_passenger" depart="77.02" departLane="best" from="914452991#0" to="-122053474#2"/>
    <trip id="veh102" type="veh_passenger" depart="77.78" departLane="best" from="-78625624#0" to="921879086#2"/>
    <trip id="veh103" type="veh_passenger" depart="78.55" departLane="best" from="-45421209#4" to="44649978#2"/>
    <trip id="veh104" type="veh_passenger" depart="79.31" departLane="best" from="1105811212" to="110659666#3"/>
    <trip id="veh105" type="veh_passenger" depart="80.07" departLane="best" from="-914452972#0" to="938406737#4"/>
    <trip id="veh108" type="veh_passenger" depart="82.36" departLane="best" from="915562957#3" to="142955058#1"/>
    <trip id="veh109" type="veh_passenger" depart="83.12" departLane="best" from="133471995#0" to="308245873#0"/>
    <trip id="veh110" type="veh_passenger" depart="83.88" departLane="best" from="-120402126#2" to="142955105#0"/>
    <trip id="veh111" type="veh_passenger" depart="84.65" departLane="best" from="122553384#5" to="75716311#5"/>
    <trip id="veh112" type="veh_passenger" depart="85.41" departLane="best" from="143071687#3" to="914452991#0"/>
    <trip id="veh113" type="veh_passenger" depart="86.17" departLane="best" from="1237734016#6" to="164951853#18"/>
    <trip id="veh114" type="veh_passenger" depart="86.94" departLane="best" from="-142843694#2" to="151656828#3"/>
    <trip id="veh115" type="veh_passenger" depart="87.70" departLane="best" from="-30064985#2" to="-142393043#0"/>
    <trip id="veh116" type="veh_passenger" depart="88.46" departLane="best" from="-76170831#1" to="45421214#0"/>
    <trip id="veh117" type="veh_passenger" depart="89.22" departLane="best" from="142843693#0" to="143731211"/>
    <trip id="veh118" type="veh_passenger" depart="89.99" departLane="best" from="-922693239" to="142955096#3"/>
    <trip id="veh119" type="veh_passenger" depart="90.75" departLane="best" from="127253318#2" to="78622388"/>
    <trip id="veh120" type="veh_passenger" depart="91.51" departLane="best" from="-164951853#28" to="143380648#2"/>
    <trip id="veh121" type="veh_passenger" depart="92.27" departLane="best" from="-320745082#1" to="102540843#1"/>
    <trip id="veh122" type="veh_passenger" depart="93.04" departLane="best" from="151298869#2" to="-76177092#0"/>
    <trip id="veh123" type="veh_passenger" depart="93.80" departLane="best" from="75728018#0" to="-682873444#0"/>
    <trip id="veh124" type="veh_passenger" depart="94.56" departLane="best" departSpeed="max" from="-122054885#1" to="121176731"/>
    <trip id="veh125" type="veh_passenger" depart="95.32" departLane="best" from="986654992" to="970633707#2"/>
    <trip id="veh126" type="veh_passenger" depart="96.09" departLane="best" from="122148373#1" to="285471960#1"/>
    <trip id="veh127" type="veh_passenger" depart="96.85" departLane="best" from="-45421209#4" to="78610145#1"/>
    <trip id="veh128" type="veh_passenger" depart="97.61" departLane="best" from="75728018#7" to="76168792#1"/>
    <trip id="veh129" type="veh_passenger" depart="98.37" departLane="best" from="78192620#2" to="-148245040#1"/>
    <trip id="veh130" type="veh_passenger" depart="99.14" departLane="best" from="-59264904#1" to="185310429#1"/>
    <trip id="veh131" type="veh_passenger" depart="99.90" departLane="best" from="142955105#1" to="921879090#2"/>
    <trip id="veh132" type="veh_passenger" depart="100.66" departLane="best" from="143822152#8" to="-1023647403"/>
    <trip id="veh133" type="veh_passenger" depart="101.42" departLane="best" from="-45421205#3" to="76172937#0"/>
    <trip id="veh134" type="veh_passenger" depart="102.19" departLane="best" from="145564960#1" to="810704706#3"/>
    <trip id="veh135" type="veh_passenger" depart="102.95" departLane="best" from="141754942#1" to="-141754926#9"/>
    <trip id="veh136" type="veh_passenger" depart="103.71" departLane="best" departSpeed="max" from="-1360556357" to="141754926#1"/>
    <trip id="veh137" type="veh_passenger" depart="104.47" departLane="best" from="550293188#1" to="143380638"/>
    <trip id="veh139" type="veh_passenger" depart="106.00" departLane="best" from="143380643#14" to="-68729411#6"/>
    <trip id="veh140" type="veh_passenger" depart="106.76" departLane="best" from="-121260889#1" to="76346235#1"/>
    <trip id="veh141" type="veh_passenger" depart="107.53" departLane="best" from="-68722297#0" to="140524377#0"/>
    <trip id="veh142" type="veh_passenger" depart="108.29" departLane="best" from="1006714089" to="-75717217#0"/>
    <trip id="veh143" type="veh_passenger" depart="109.05" departLane="best" from="-1016896881#0" to="-338338598#0"/>
    <trip id="veh144" type="veh_passenger" depart="109.81" departLane="best" from="143380650" to="68729408#0"/>
    <trip id="veh145" type="veh_passenger" depart="110.58" departLane="best" from="200910771#0" to="141682692#1"/>
    <trip id="veh146" type="veh_passenger" depart="111.34" departLane="best" from="-102020831#0" to="-102549138#4"/>
    <trip id="veh147" type="veh_passenger" depart="112.10" departLane="best" from="-122218548#5" to="76176771#1"/>
    <trip id="veh148" type="veh_passenger" depart="112.86" departLane="best" from="-76181125#2" to="141537368#1"/>
    <trip id="veh149" type="veh_passenger" depart="113.63" departLane="best" from="-61225879#1" to="142955079#4"/>
    <trip id="veh150" type="veh_passenger" depart="114.39" departLane="best" from="142955065#2" to="-142845027#8"/>
    <trip id="veh151" type="veh_passenger" depart="115.15" departLane="best" from="-75722649#3" to="76183934#3"/>
    <trip id="veh152" type="veh_passenger" depart="115.91" departLane="best" from="38762797#1" to="75723548"/>
    <trip id="veh153" type="veh_passenger" depart="116.68" departLane="best" from="-76178969#1" to="-248251206#2"/>
    <trip id="veh154" type="veh_passenger" depart="117.44" departLane="best" from="-371721870#3" to="-141536005#12"/>
    <trip id="veh155" type="veh_passenger" depart="118.20" departLane="best" from="336543559" to="76177373#2"/>
    <trip id="veh156" type="veh_passenger" depart="118.96" departLane="best" from="915571149#0" to="143731214#1"/>
    <trip id="veh158" type="veh_passenger" depart="120.49" departLane="best" from="-74333937#8" to="915595736"/>
    <trip id="veh159" type="veh_passenger" depart="121.25" departLane="best" from="44650039#0" to="76171050#0"/>
    <trip id="veh160" type="veh_passenger" depart="122.01" departLane="best" departSpeed="max" from="-104128033#3" to="287958760#0"/>
    <trip id="veh161" type="veh_passenger" depart="122.78" departLane="best" from="-76177772#0" to="78489653#2"/>
    <trip id="veh163" type="veh_passenger" depart="124.30" departLane="best" from="-44650021" to="-74096204#3"/>
    <trip id="veh164" type="veh_passenger" depart="125.06" departLane="best" departSpeed="max" from="336737698" to="141539004#0"/>
    <trip id="veh165" type="veh_passenger" depart="125.83" departLane="best" from="75722428#3" to="75722649#1"/>
    <trip id="veh166" type="veh_passenger" depart="126.59" departLane="best" from="-234480278#2" to="61226306#6"/>
    <trip id="veh167" type="veh_passenger" depart="127.35" departLane="best" from="38762726#1" to="338338598#1"/>
    <trip id="veh168" type="veh_passenger" depart="128.12" departLane="best" departSpeed="max" from="-1039180958" to="-183360478"/>
    <trip id="veh169" type="veh_passenger" depart="128.88" departLane="best" from="-76170831#3" to="75727676#1"/>
    <trip id="veh170" type="veh_passenger" depart="129.64" departLane="best" from="-915562954#3" to="-75717696#6"/>
    <trip id="veh171" type="veh_passenger" depart="130.40" departLane="best" from="-143383887" to="102549151#4"/>
    <trip id="veh172" type="veh_passenger" depart="131.17" departLane="best" from="915598190#3" to="-141531189#1"/>
    <trip id="veh173" type="veh_passenger" depart="131.93" departLane="best" from="-813211005" to="-141754926#8"/>
    <trip id="veh174" type="veh_passenger" depart="132.69" departLane="best" from="915571150#0" to="-155845862#1"/>
    <trip id="veh175" type="veh_passenger" depart="133.45" departLane="best" from="1230205693#1" to="-74096199#4"/>
    <trip id="veh176" type="veh_passenger" depart="134.22" departLane="best" from="1367954564#0" to="1178189487"/>
    <trip id="veh177" type="veh_passenger" depart="134.98" departLane="best" departSpeed="max" from="185744819#0" to="76184302#1"/>
    <trip id="veh178" type="veh_passenger" depart="135.74" departLane="best" from="142955061#0" to="1318998647"/>
    <trip id="veh179" type="veh_passenger" depart="136.50" departLane="best" from="-819037310#8" to="142932098#2"/>
    <trip id="veh181" type="veh_passenger" depart="138.03" departLane="best" departSpeed="max" from="-1007129223" to="78242232#2"/>
    <trip id="veh182" type="veh_passenger" depart="138.79" departLane="best" from="-1308856488#0" to="203886194#1"/>
    <trip id="veh183" type="veh_passenger" depart="139.55" departLane="best" from="-200910771#3" to="151608610#0"/>
    <trip id="veh184" type="veh_passenger" depart="140.32" departLane="best" from="-77867229#3" to="-124197561#0"/>
    <trip id="veh185" type="veh_passenger" depart="141.08" departLane="best" from="149008775#1" to="78043483#2"/>
    <trip id="veh186" type="veh_passenger" depart="141.84" departLane="best" from="-75727818#4" to="74333937#7"/>
    <trip id="veh187" type="veh_passenger" depart="142.60" departLane="best" departSpeed="max" from="165239759" to="-76177092#0"/>
    <trip id="veh188" type="veh_passenger" depart="143.37" departLane="best" from="75723459#0" to="103643804#0"/>
    <trip id="veh189" type="veh_passenger" depart="144.13" departLane="best" from="-915562952#0" to="76168727#0"/>
    <trip id="veh190" type="veh_passenger" depart="144.89" departLane="best" from="-141539006#2" to="1087362251"/>
    <trip id="veh191" type="veh_passenger" depart="145.65" departLane="best" from="819037307#4" to="-151656834#1"/>
    <trip id="veh192" type="veh_passenger" depart="146.42" departLane="best" departSpeed="max" from="76179962#0" to="143728822#1"/>
    <trip id="veh193" type="veh_passenger" depart="147.18" departLane="best" from="-74339695#9" to="-141539005#5"/>
    <trip id="veh194" type="veh_passenger" depart="147.94" departLane="best" from="-1006714089" to="-75727818#7"/>
    <trip id="veh195" type="veh_passenger" depart="148.71" departLane="best" from="102020840#6" to="142955065#1"/>
    <trip id="veh196" type="veh_passenger" depart="149.47" departLane="best" from="986654987#1" to="-121923558#1"/>
    <trip id="veh197" type="veh_passenger" depart="150.23" departLane="best" from="103630531#0" to="-287958760#1"/>
    <trip id="veh198" type="veh_passenger" depart="150.99" departLane="best" from="119066064#8" to="76184302#3"/>
    <trip id="veh199" type="veh_passenger" depart="151.76" departLane="best" from="38762797#0" to="-151597749#0"/>
    <trip id="veh200" type="veh_passenger" depart="152.52" departLane="best" departSpeed="max" from="-126200851" to="133534842"/>
    <trip id="veh201" type="veh_passenger" depart="153.28" departLane="best" from="143380641#0" to="78314915#0"/>
    <trip id="veh202" type="veh_passenger" depart="154.04" departLane="best" from="45421207#4" to="326625485#1"/>
    <trip id="veh203" type="veh_passenger" depart="154.81" departLane="best" from="151298871#1" to="-335295366#1"/>
    <trip id="veh204" type="veh_passenger" depart="155.57" departLane="best" from="-163080799#0" to="107512592#0"/>
    <trip id="veh205" type="veh_passenger" depart="156.33" departLane="best" from="-335295359#6" to="-1236601383#2"/>
    <trip id="veh206" type="veh_passenger" depart="157.09" departLane="best" from="68729408#2" to="-126607364#3"/>
    <trip id="veh207" type="veh_passenger" depart="157.86" departLane="best" from="-921879089#1" to="143822160#9"/>
    <trip id="veh208" type="veh_passenger" depart="158.62" departLane="best" from="-154317054#3" to="166506369#0"/>
    <trip id="veh209" type="veh_passenger" depart="159.38" departLane="best" from="121923540#0" to="-45421207#4"/>
    <trip id="veh210" type="veh_passenger" depart="160.14" departLane="best" from="-143822159#8" to="-102020840#14"/>
    <trip id="veh211" type="veh_passenger" depart="160.91" departLane="best" from="246308228#3" to="336737758#0"/>
    <trip id="veh212" type="veh_passenger" depart="161.67" departLane="best" from="-1360556356#0" to="912809763#1"/>
    <trip id="veh213" type="veh_passenger" depart="162.43" departLane="best" from="150071963" to="-151501132#0"/>
    <trip id="veh214" type="veh_passenger" depart="163.19" departLane="best" from="1257179052" to="120724323#0"/>
    <trip id="veh215" type="veh_passenger" depart="163.96" departLane="best" from="-344077759#2" to="74333937#9"/>
    <trip id="veh216" type="veh_passenger" depart="164.72" departLane="best" from="-110659666#8" to="45421239#3"/>
    <trip id="veh217" type="veh_passenger" depart="165.48" departLane="best" from="151297654#1" to="-921879091#1"/>
    <trip id="veh218" type="veh_passenger" depart="166.24" departLane="best" from="-142843694#5" to="-84532538#1"/>
    <trip id="veh219" type="veh_passenger" depart="167.01" departLane="best" from="-76171264#1" to="143382008#6"/>
    <trip id="veh220" type="veh_passenger" depart="167.77" departLane="best" from="-165009517#1" to="1307530760#0"/>
    <trip id="veh221" type="veh_passenger" depart="168.53" departLane="best" from="55600682#5" to="141539005#4"/>
    <trip id="veh222" type="veh_passenger" depart="169.29" departLane="best" from="-76177772#2" to="30065012#0"/>
    <trip id="veh223" type="veh_passenger" depart="170.06" departLane="best" from="-119240326#1" to="-68722293#0"/>
    <trip id="veh224" type="veh_passenger" depart="170.82" departLane="best" from="-336737758#0" to="-150071963"/>
    <trip id="veh225" type="veh_passenger" depart="171.58" departLane="best" from="30065003#7" to="-134775831"/>
    <trip id="veh226" type="veh_passenger" depart="172.35" departLane="best" from="143071687#2" to="-74339695#10"/>
    <trip id="veh227" type="veh_passenger" depart="173.11" departLane="best" departSpeed="max" from="-123569452" to="75727676#0"/>
    <trip id="veh228" type="veh_passenger" depart="173.87" departLane="best" from="-51946599#0" to="-76349819#2"/>
    <trip id="veh229" type="veh_passenger" depart="174.63" departLane="best" from="1318998648#1" to="142955172"/>
    <trip id="veh230" type="veh_passenger" depart="175.40" departLane="best" from="-289623204#3" to="164951853#30"/>
    <trip id="veh231" type="veh_passenger" depart="176.16" departLane="best" from="151896347#3" to="-122942484#1"/>
    <trip id="veh232" type="veh_passenger" depart="176.92" departLane="best" from="-921879091#1" to="244253327#0"/>
    <trip id="veh233" type="veh_passenger" depart="177.68" departLane="best" from="-936461014#3" to="76346235#1"/>
    <trip id="veh234" type="veh_passenger" depart="178.45" departLane="best" from="141754942#0" to="165009517#1"/>
    <trip id="veh235" type="veh_passenger" depart="179.21" departLane="best" from="74096204#1" to="336543769#0"/>
    <trip id="veh236" type="veh_passenger" depart="179.97" departLane="best" from="-79091897#2" to="-102020840#4"/>
    <trip id="veh237" type="veh_passenger" depart="180.73" departLane="best" departSpeed="max" from="-76346243" to="326976693#6"/>
    <trip id="veh238" type="veh_passenger" depart="181.50" departLane="best" from="700729022#2" to="-895886866"/>
    <trip id="veh239" type="veh_passenger" depart="182.26" departLane="best" from="-921879096#1" to="307186903#1"/>
    <trip id="veh240" type="veh_passenger" depart="183.02" departLane="best" from="-1342498631#3" to="143078530#0"/>
    <trip id="veh241" type="veh_passenger" depart="183.78" departLane="best" from="-203886859" to="-302250537#2"/>
    <trip id="veh242" type="veh_passenger" depart="184.55" departLane="best" from="-102549144#3" to="113785200#15"/>
    <trip id="veh243" type="veh_passenger" depart="185.31" departLane="best" from="-76179015#1" to="-151896346#1"/>
    <trip id="veh244" type="veh_passenger" depart="186.07" departLane="best" from="915562955#0" to="151497007#4"/>
    <trip id="veh245" type="veh_passenger" depart="186.83" departLane="best" departSpeed="max" from="118161141#0" to="-142845027#9"/>